<?xml version="1.0" encoding="UTF-8"?>

<!-- generated on 2026-01-19T06:35:13.874798+05:45 by Eclipse SUMO netedit 1.25.0
<neteditConfiguration xmlns:xsi="http://www.w3.org/2001/XMLSchema-instance" xsi:noNamespaceSchemaLocation="http://sumo.dlr.de/xsd/neteditConfiguration.xsd">

    <input>
        <sumo-net-file value=".\net_new.net.xml"/>
    </input>

    <output>
        <output-file value=".\net_new.net.xml"/>
    </output>

    <processing>
        <geometry.min-radius.fix.railways value="false"/>
        <geometry.avoid-overlap value="false"/>
        <geometry.max-grade.fix value="false"/>
        <offset.disable-normalization value="true"/>
        <lefthand value="0"/>
    </processing>

    <junctions>
        <no-turnarounds value="true"/>
        <junctions.corner-detail value="5"/>
        <junctions.limit-turn-speed value="5.50"/>
        <rectangular-lane-cut value="0"/>
    </junctions>

    <pedestrian>
        <walkingareas value="0"/>
    </pedestrian>

</neteditConfiguration>
-->

<net version="1.20" junctionCornerDetail="5" limitTurnSpeed="5.50" avoidOverlap="0" xmlns:xsi="http://www.w3.org/2001/XMLSchema-instance" xsi:noNamespaceSchemaLocation="http://sumo.dlr.de/xsd/net_file.xsd">

    <location netOffset="0.00,0.00" convBoundary="-163.66,-167.68,200.61,159.90" origBoundary="-10000000000.00,-10000000000.00,10000000000.00,10000000000.00" projParameter="!"/>

    <edge id=":middle_junction_0" function="internal">
        <lane id=":middle_junction_0_0" index="0" speed="7.46" length="11.48" shape="30.27,6.10 26.90,6.50 24.48,7.72 23.01,9.74 22.49,12.58"/>
    </edge>
    <edge id=":middle_junction_1" function="internal">
        <lane id=":middle_junction_1_0" index="0" speed="13.89" length="31.10" shape="30.27,6.10 -0.83,5.20"/>
        <lane id=":middle_junction_1_1" index="1" speed="13.89" length="31.10" shape="30.27,2.00 -0.83,2.00"/>
        <lane id=":middle_junction_1_2" index="2" speed="13.89" length="31.10" shape="30.27,-1.20 -0.83,-1.20"/>
    </edge>
    <edge id=":middle_junction_4" function="internal">
        <lane id=":middle_junction_4_0" index="0" speed="10.86" length="5.09" shape="30.27,-1.20 25.23,-1.91"/>
    </edge>
    <edge id=":middle_junction_20" function="internal">
        <lane id=":middle_junction_20_0" index="0" speed="10.86" length="22.26" shape="25.23,-1.91 22.77,-2.25 17.45,-5.42 14.31,-10.69 13.35,-18.08"/>
    </edge>
    <edge id=":middle_junction_5" function="internal">
        <lane id=":middle_junction_5_0" index="0" speed="7.24" length="10.96" shape="23.85,-17.92 24.21,-14.80 25.40,-12.58 27.42,-11.24 30.27,-10.80"/>
    </edge>
    <edge id=":middle_junction_6" function="internal">
        <lane id=":middle_junction_6_0" index="0" speed="13.89" length="30.51" shape="23.85,-17.92 22.49,12.58"/>
        <lane id=":middle_junction_6_1" index="1" speed="13.89" length="30.51" shape="19.75,-17.98 19.29,12.53"/>
        <lane id=":middle_junction_6_2" index="2" speed="13.89" length="30.51" shape="16.55,-18.03 16.09,12.48"/>
    </edge>
    <edge id=":middle_junction_9" function="internal">
        <lane id=":middle_junction_9_0" index="0" speed="11.01" length="4.94" shape="16.55,-18.03 15.77,-13.15"/>
    </edge>
    <edge id=":middle_junction_21" function="internal">
        <lane id=":middle_junction_21_0" index="0" speed="11.01" length="22.55" shape="15.77,-13.15 15.37,-10.67 12.08,-5.41 6.68,-2.25 -0.83,-1.20"/>
    </edge>
    <edge id=":middle_junction_10" function="internal">
        <lane id=":middle_junction_10_0" index="0" speed="7.46" length="11.48" shape="-0.83,-11.70 2.54,-12.10 4.96,-13.32 6.43,-15.34 6.95,-18.18"/>
    </edge>
    <edge id=":middle_junction_11" function="internal">
        <lane id=":middle_junction_11_0" index="0" speed="13.89" length="31.10" shape="-0.83,-11.70 30.27,-10.80"/>
        <lane id=":middle_junction_11_1" index="1" speed="13.89" length="31.10" shape="-0.83,-7.60 30.27,-7.60"/>
        <lane id=":middle_junction_11_2" index="2" speed="13.89" length="31.10" shape="-0.83,-4.40 30.27,-4.40"/>
    </edge>
    <edge id=":middle_junction_14" function="internal">
        <lane id=":middle_junction_14_0" index="0" speed="10.86" length="5.09" shape="-0.83,-4.40 4.21,-3.69"/>
    </edge>
    <edge id=":middle_junction_22" function="internal">
        <lane id=":middle_junction_22_0" index="0" speed="10.86" length="22.26" shape="4.21,-3.69 6.67,-3.35 11.99,-0.18 15.13,5.09 16.09,12.48"/>
    </edge>
    <edge id=":middle_junction_15" function="internal">
        <lane id=":middle_junction_15_0" index="0" speed="7.24" length="10.96" shape="5.59,12.32 5.23,9.20 4.04,6.98 2.02,5.64 -0.83,5.20"/>
    </edge>
    <edge id=":middle_junction_16" function="internal">
        <lane id=":middle_junction_16_0" index="0" speed="13.89" length="30.51" shape="5.59,12.32 6.95,-18.18"/>
        <lane id=":middle_junction_16_1" index="1" speed="13.89" length="30.51" shape="9.69,12.38 10.15,-18.13"/>
        <lane id=":middle_junction_16_2" index="2" speed="13.89" length="30.51" shape="12.89,12.43 13.35,-18.08"/>
    </edge>
    <edge id=":middle_junction_19" function="internal">
        <lane id=":middle_junction_19_0" index="0" speed="11.01" length="4.94" shape="12.89,12.43 13.67,7.55"/>
    </edge>
    <edge id=":middle_junction_23" function="internal">
        <lane id=":middle_junction_23_0" index="0" speed="11.01" length="22.55" shape="13.67,7.55 14.07,5.07 17.36,-0.19 22.76,-3.35 30.27,-4.40"/>
    </edge>

    <edge id="east_middle_road" from="east_junction" to="middle_junction" priority="-1" shape="100.61,-2.80 19.34,-2.80">
        <lane id="east_middle_road_0" index="0" speed="13.89" length="170.34" width="5.00" shape="200.61,6.10 30.27,6.10"/>
        <lane id="east_middle_road_1" index="1" speed="13.89" length="170.34" shape="200.61,2.00 30.27,2.00"/>
        <lane id="east_middle_road_2" index="2" speed="13.89" length="170.34" shape="200.61,-1.20 30.27,-1.20"/>
    </edge>
    <edge id="middle_east_road" from="middle_junction" to="east_junction" priority="-1" shape="19.34,-2.80 100.61,-2.80">
        <lane id="middle_east_road_0" index="0" speed="13.89" length="170.34" shape="30.27,-10.80 200.61,-10.80"/>
        <lane id="middle_east_road_1" index="1" speed="13.89" length="170.34" shape="30.27,-7.60 200.61,-7.60"/>
        <lane id="middle_east_road_2" index="2" speed="13.89" length="170.34" shape="30.27,-4.40 200.61,-4.40"/>
    </edge>
    <edge id="middle_north_road" from="middle_junction" to="north_junction" priority="-1" shape="14.71,-2.13 13.76,59.90">
        <lane id="middle_north_road_0" index="0" speed="13.89" length="147.44" shape="22.49,12.58 20.23,160.00"/>
        <lane id="middle_north_road_1" index="1" speed="13.89" length="147.44" shape="19.29,12.53 17.03,159.95"/>
        <lane id="middle_north_road_2" index="2" speed="13.89" length="147.44" shape="16.09,12.48 13.83,159.90"/>
    </edge>
    <edge id="middle_south_road" from="middle_junction" to="south_junction" priority="-1" shape="14.71,-2.13 15.71,-67.68">
        <lane id="middle_south_road_0" index="0" speed="13.89" length="149.62" shape="6.95,-18.18 9.24,-167.78"/>
        <lane id="middle_south_road_1" index="1" speed="13.89" length="149.62" shape="10.15,-18.13 12.44,-167.73"/>
        <lane id="middle_south_road_2" index="2" speed="13.89" length="149.62" shape="13.35,-18.08 15.64,-167.68"/>
    </edge>
    <edge id="middle_west_road" from="middle_junction" to="west_junction" priority="-1" shape="19.34,-2.80 -63.66,-2.80">
        <lane id="middle_west_road_0" index="0" speed="13.89" length="162.83" shape="-0.83,5.20 -163.66,5.20"/>
        <lane id="middle_west_road_1" index="1" speed="13.89" length="162.83" shape="-0.83,2.00 -163.66,2.00"/>
        <lane id="middle_west_road_2" index="2" speed="13.89" length="162.83" shape="-0.83,-1.20 -163.66,-1.20"/>
    </edge>
    <edge id="north_middle_road" from="north_junction" to="middle_junction" priority="-1" shape="13.76,59.90 14.71,-2.13">
        <lane id="north_middle_road_0" index="0" speed="13.89" length="147.44" width="5.00" shape="3.33,159.74 5.59,12.32"/>
        <lane id="north_middle_road_1" index="1" speed="13.89" length="147.44" shape="7.43,159.80 9.69,12.38"/>
        <lane id="north_middle_road_2" index="2" speed="13.89" length="147.44" shape="10.63,159.85 12.89,12.43"/>
    </edge>
    <edge id="south_middle_road" from="south_junction" to="middle_junction" priority="-1" shape="15.71,-67.68 14.71,-2.13">
        <lane id="south_middle_road_0" index="0" speed="13.89" length="149.62" width="5.00" shape="26.13,-167.52 23.85,-17.92"/>
        <lane id="south_middle_road_1" index="1" speed="13.89" length="149.62" shape="22.03,-167.58 19.75,-17.98"/>
        <lane id="south_middle_road_2" index="2" speed="13.89" length="149.62" shape="18.84,-167.63 16.55,-18.03"/>
    </edge>
    <edge id="west_middle_road" from="west_junction" to="middle_junction" priority="-1" length="150.00" shape="-63.66,-2.80 19.34,-2.80">
        <lane id="west_middle_road_0" index="0" speed="13.89" length="150.00" width="5.00" shape="-163.66,-11.70 -0.83,-11.70"/>
        <lane id="west_middle_road_1" index="1" speed="13.89" length="150.00" shape="-163.66,-7.60 -0.83,-7.60"/>
        <lane id="west_middle_road_2" index="2" speed="13.89" length="150.00" shape="-163.66,-4.40 -0.83,-4.40"/>
    </edge>

    <tlLogic id="middle_junction" type="static" programID="0" offset="0">
        <phase duration="42" state="GGGGgrrrrrGGGGgrrrrr"/>
        <phase duration="3"  state="yyyyyrrrrryyyyyrrrrr"/>
        <phase duration="42" state="rrrrrGGGGgrrrrrGGGGg"/>
        <phase duration="3"  state="rrrrryyyyyrrrrryyyyy"/>
    </tlLogic>

    <junction id="east_junction" type="dead_end" x="200.61" y="-2.80" incLanes="middle_east_road_0 middle_east_road_1 middle_east_road_2" intLanes="" shape="200.61,-2.80 200.61,-12.40 200.61,-2.80"/>
    <junction id="middle_junction" type="traffic_light" x="17.03" y="-2.47" incLanes="east_middle_road_0 east_middle_road_1 east_middle_road_2 south_middle_road_0 south_middle_road_1 south_middle_road_2 west_middle_road_0 west_middle_road_1 west_middle_road_2 north_middle_road_0 north_middle_road_1 north_middle_road_2" intLanes=":middle_junction_0_0 :middle_junction_1_0 :middle_junction_1_1 :middle_junction_1_2 :middle_junction_20_0 :middle_junction_5_0 :middle_junction_6_0 :middle_junction_6_1 :middle_junction_6_2 :middle_junction_21_0 :middle_junction_10_0 :middle_junction_11_0 :middle_junction_11_1 :middle_junction_11_2 :middle_junction_22_0 :middle_junction_15_0 :middle_junction_16_0 :middle_junction_16_1 :middle_junction_16_2 :middle_junction_23_0" shape="30.27,8.60 30.27,-12.40 28.06,-13.01 27.29,-13.77 26.75,-14.84 26.44,-16.21 26.35,-17.88 5.35,-18.20 4.64,-15.98 3.78,-15.20 2.58,-14.64 1.04,-14.31 -0.83,-14.20 -0.83,6.80 1.38,7.41 2.15,8.17 2.69,9.23 3.00,10.60 3.09,12.28 24.09,12.60 24.80,10.38 25.66,9.60 26.86,9.04 28.40,8.71">
        <request index="0"  response="00000000000000000000" foes="00000000000111000000" cont="0"/>
        <request index="1"  response="10000000000000000000" foes="11111100001111000000" cont="0"/>
        <request index="2"  response="10000000000000000000" foes="11111100001111000000" cont="0"/>
        <request index="3"  response="10000000001000000000" foes="11111100001111000000" cont="0"/>
        <request index="4"  response="10000011101000000000" foes="11110011101111000000" cont="1"/>
        <request index="5"  response="00000011100000000000" foes="00000011100000000000" cont="0"/>
        <request index="6"  response="00000111100000011111" foes="10000111100000011111" cont="0"/>
        <request index="7"  response="00000111100000011111" foes="10000111100000011111" cont="0"/>
        <request index="8"  response="00000111100000011111" foes="10000111100000011111" cont="0"/>
        <request index="9"  response="01110111100000011110" foes="01110111100000011110" cont="1"/>
        <request index="10" response="00000000000000000000" foes="01110000000000000000" cont="0"/>
        <request index="11" response="00000000001000000000" foes="11110000001111110000" cont="0"/>
        <request index="12" response="00000000001000000000" foes="11110000001111110000" cont="0"/>
        <request index="13" response="10000000001000000000" foes="11110000001111110000" cont="0"/>
        <request index="14" response="10000000001000001110" foes="11110000001111001110" cont="1"/>
        <request index="15" response="00000000000000001110" foes="00000000000000001110" cont="0"/>
        <request index="16" response="00000111110000011110" foes="00000111111000011110" cont="0"/>
        <request index="17" response="00000111110000011110" foes="00000111111000011110" cont="0"/>
        <request index="18" response="00000111110000011110" foes="00000111111000011110" cont="0"/>
        <request index="19" response="00000111100111011110" foes="00000111100111011110" cont="1"/>
    </junction>
    <junction id="north_junction" type="dead_end" x="13.76" y="159.90" incLanes="middle_north_road_0 middle_north_road_1 middle_north_road_2" intLanes="" shape="12.23,159.88 21.83,160.02 12.23,159.88"/>
    <junction id="south_junction" type="dead_end" x="15.71" y="-167.68" incLanes="middle_south_road_0 middle_south_road_1 middle_south_road_2" intLanes="" shape="17.24,-167.66 7.64,-167.80 17.24,-167.66"/>
    <junction id="west_junction" type="dead_end" x="-163.66" y="-2.80" incLanes="middle_west_road_0 middle_west_road_1 middle_west_road_2" intLanes="" shape="-163.66,-2.80 -163.66,6.80 -163.66,-2.80"/>

    <junction id=":middle_junction_20_0" type="internal" x="25.23" y="-1.91" incLanes=":middle_junction_4_0 west_middle_road_0 west_middle_road_1 west_middle_road_2" intLanes=":middle_junction_6_0 :middle_junction_6_1 :middle_junction_6_2 :middle_junction_9_0 :middle_junction_10_0 :middle_junction_11_0 :middle_junction_11_1 :middle_junction_11_2 :middle_junction_16_0 :middle_junction_16_1 :middle_junction_16_2 :middle_junction_19_0"/>
    <junction id=":middle_junction_21_0" type="internal" x="15.77" y="-13.15" incLanes=":middle_junction_9_0 north_middle_road_0 north_middle_road_1 north_middle_road_2" intLanes=":middle_junction_1_0 :middle_junction_1_1 :middle_junction_1_2 :middle_junction_4_0 :middle_junction_11_0 :middle_junction_11_1 :middle_junction_11_2 :middle_junction_14_0 :middle_junction_15_0 :middle_junction_16_0 :middle_junction_16_1 :middle_junction_16_2"/>
    <junction id=":middle_junction_22_0" type="internal" x="4.21" y="-3.69" incLanes=":middle_junction_14_0 east_middle_road_0 east_middle_road_1 east_middle_road_2" intLanes=":middle_junction_0_0 :middle_junction_1_0 :middle_junction_1_1 :middle_junction_1_2 :middle_junction_6_0 :middle_junction_6_1 :middle_junction_6_2 :middle_junction_9_0 :middle_junction_16_0 :middle_junction_16_1 :middle_junction_16_2 :middle_junction_19_0"/>
    <junction id=":middle_junction_23_0" type="internal" x="13.67" y="7.55" incLanes=":middle_junction_19_0 south_middle_road_0 south_middle_road_1 south_middle_road_2" intLanes=":middle_junction_1_0 :middle_junction_1_1 :middle_junction_1_2 :middle_junction_4_0 :middle_junction_5_0 :middle_junction_6_0 :middle_junction_6_1 :middle_junction_6_2 :middle_junction_11_0 :middle_junction_11_1 :middle_junction_11_2 :middle_junction_14_0"/>

    <connection from="east_middle_road" to="middle_north_road" fromLane="0" toLane="0" via=":middle_junction_0_0" tl="middle_junction" linkIndex="0" dir="r" state="O"/>
    <connection from="east_middle_road" to="middle_west_road" fromLane="0" toLane="0" via=":middle_junction_1_0" tl="middle_junction" linkIndex="1" dir="s" state="O"/>
    <connection from="east_middle_road" to="middle_west_road" fromLane="1" toLane="1" via=":middle_junction_1_1" tl="middle_junction" linkIndex="2" dir="s" state="O"/>
    <connection from="east_middle_road" to="middle_west_road" fromLane="2" toLane="2" via=":middle_junction_1_2" tl="middle_junction" linkIndex="3" dir="s" state="O"/>
    <connection from="east_middle_road" to="middle_south_road" fromLane="2" toLane="2" via=":middle_junction_4_0" tl="middle_junction" linkIndex="4" dir="l" state="o"/>
    <connection from="north_middle_road" to="middle_west_road" fromLane="0" toLane="0" via=":middle_junction_15_0" tl="middle_junction" linkIndex="15" dir="r" state="o"/>
    <connection from="north_middle_road" to="middle_south_road" fromLane="0" toLane="0" via=":middle_junction_16_0" tl="middle_junction" linkIndex="16" dir="s" state="o"/>
    <connection from="north_middle_road" to="middle_south_road" fromLane="1" toLane="1" via=":middle_junction_16_1" tl="middle_junction" linkIndex="17" dir="s" state="o"/>
    <connection from="north_middle_road" to="middle_south_road" fromLane="2" toLane="2" via=":middle_junction_16_2" tl="middle_junction" linkIndex="18" dir="s" state="o"/>
    <connection from="north_middle_road" to="middle_east_road" fromLane="2" toLane="2" via=":middle_junction_19_0" tl="middle_junction" linkIndex="19" dir="l" state="o"/>
    <connection from="south_middle_road" to="middle_east_road" fromLane="0" toLane="0" via=":middle_junction_5_0" tl="middle_junction" linkIndex="5" dir="r" state="o"/>
    <connection from="south_middle_road" to="middle_north_road" fromLane="0" toLane="0" via=":middle_junction_6_0" tl="middle_junction" linkIndex="6" dir="s" state="o"/>
    <connection from="south_middle_road" to="middle_north_road" fromLane="1" toLane="1" via=":middle_junction_6_1" tl="middle_junction" linkIndex="7" dir="s" state="o"/>
    <connection from="south_middle_road" to="middle_north_road" fromLane="2" toLane="2" via=":middle_junction_6_2" tl="middle_junction" linkIndex="8" dir="s" state="o"/>
    <connection from="south_middle_road" to="middle_west_road" fromLane="2" toLane="2" via=":middle_junction_9_0" tl="middle_junction" linkIndex="9" dir="l" state="o"/>
    <connection from="west_middle_road" to="middle_south_road" fromLane="0" toLane="0" via=":middle_junction_10_0" tl="middle_junction" linkIndex="10" dir="r" state="O"/>
    <connection from="west_middle_road" to="middle_east_road" fromLane="0" toLane="0" via=":middle_junction_11_0" tl="middle_junction" linkIndex="11" dir="s" state="O"/>
    <connection from="west_middle_road" to="middle_east_road" fromLane="1" toLane="1" via=":middle_junction_11_1" tl="middle_junction" linkIndex="12" dir="s" state="O"/>
    <connection from="west_middle_road" to="middle_east_road" fromLane="2" toLane="2" via=":middle_junction_11_2" tl="middle_junction" linkIndex="13" dir="s" state="O"/>
    <connection from="west_middle_road" to="middle_north_road" fromLane="2" toLane="2" via=":middle_junction_14_0" tl="middle_junction" linkIndex="14" dir="l" state="o"/>

    <connection from=":middle_junction_0" to="middle_north_road" fromLane="0" toLane="0" dir="r" state="M"/>
    <connection from=":middle_junction_1" to="middle_west_road" fromLane="0" toLane="0" dir="s" state="M"/>
    <connection from=":middle_junction_1" to="middle_west_road" fromLane="1" toLane="1" dir="s" state="M"/>
    <connection from=":middle_junction_1" to="middle_west_road" fromLane="2" toLane="2" dir="s" state="M"/>
    <connection from=":middle_junction_4" to="middle_south_road" fromLane="0" toLane="2" via=":middle_junction_20_0" dir="l" state="m"/>
    <connection from=":middle_junction_20" to="middle_south_road" fromLane="0" toLane="2" dir="l" state="M"/>
    <connection from=":middle_junction_5" to="middle_east_road" fromLane="0" toLane="0" dir="r" state="M"/>
    <connection from=":middle_junction_6" to="middle_north_road" fromLane="0" toLane="0" dir="s" state="M"/>
    <connection from=":middle_junction_6" to="middle_north_road" fromLane="1" toLane="1" dir="s" state="M"/>
    <connection from=":middle_junction_6" to="middle_north_road" fromLane="2" toLane="2" dir="s" state="M"/>
    <connection from=":middle_junction_9" to="middle_west_road" fromLane="0" toLane="2" via=":middle_junction_21_0" dir="l" state="m"/>
    <connection from=":middle_junction_21" to="middle_west_road" fromLane="0" toLane="2" dir="l" state="M"/>
    <connection from=":middle_junction_10" to="middle_south_road" fromLane="0" toLane="0" dir="r" state="M"/>
    <connection from=":middle_junction_11" to="middle_east_road" fromLane="0" toLane="0" dir="s" state="M"/>
    <connection from=":middle_junction_11" to="middle_east_road" fromLane="1" toLane="1" dir="s" state="M"/>
    <connection from=":middle_junction_11" to="middle_east_road" fromLane="2" toLane="2" dir="s" state="M"/>
    <connection from=":middle_junction_14" to="middle_north_road" fromLane="0" toLane="2" via=":middle_junction_22_0" dir="l" state="m"/>
    <connection from=":middle_junction_22" to="middle_north_road" fromLane="0" toLane="2" dir="l" state="M"/>
    <connection from=":middle_junction_15" to="middle_west_road" fromLane="0" toLane="0" dir="r" state="M"/>
    <connection from=":middle_junction_16" to="middle_south_road" fromLane="0" toLane="0" dir="s" state="M"/>
    <connection from=":middle_junction_16" to="middle_south_road" fromLane="1" toLane="1" dir="s" state="M"/>
    <connection from=":middle_junction_16" to="middle_south_road" fromLane="2" toLane="2" dir="s" state="M"/>
    <connection from=":middle_junction_19" to="middle_east_road" fromLane="0" toLane="2" via=":middle_junction_23_0" dir="l" state="m"/>
    <connection from=":middle_junction_23" to="middle_east_road" fromLane="0" toLane="2" dir="l" state="M"/>

</net>
