<?xml version="1.0" encoding="UTF-8"?>

<!-- generated on 2026-01-16T11:14:13.733324+05:45 by Eclipse SUMO netedit 1.25.0
-->

<routes xmlns:xsi="http://www.w3.org/2001/XMLSchema-instance" xsi:noNamespaceSchemaLocation="http://sumo.dlr.de/xsd/routes_file.xsd">
    <!-- VTypes -->
    <vType id="bike" vClass="motorcycle"/>
    <vType id="taxi" vClass="taxi"/>
    <vType id="truck" vClass="truck"/>
    <vType id="van" vClass="hov" guiShape="delivery"/>

    <!-- Vehicles, persons and containers (sorted by depart) -->

    <!-- Vehicles from west -->
    <!-- Lane 2 -->
    <flow id="f_0" type="bike" begin="0.00" end="3600.00" probability="0.05" departLane="2" from="west_middle_road" to="middle_north_road"/>
    <flow id="f_1" type="van" begin="0.00" end="3600.00" probability="0.05" departLane="2" from="west_middle_road" to="middle_north_road"/>
    <flow id="f_2" type="truck" begin="0.00" end="3600.00" probability="0.05" departLane="2" departSpeed="1.00" from="west_middle_road" to="middle_north_road"/>
    <flow id="f_3" begin="0.00" end="3600.00" probability="0.05" departLane = "2" from="west_middle_road" to="middle_north_road"/>
    
    <!-- Lane 1 -->
    <flow id="f_4" type="bike" begin="0.00" end="3600.00" probability="0.05" departLane="1" from="west_middle_road" to="middle_east_road"/>
    <flow id="f_5" type="van" begin="0.00" end="3600.00" probability="0.05" departLane="1" from="west_middle_road" to="middle_east_road"/>
    <flow id="f_6" type="truck" begin="0.00" end="3600.00" probability="0.05" departLane="1" departSpeed="1.00" from="west_middle_road" to="middle_east_road"/>
    <flow id="f_7" begin="0.00" end="3600.00" probability="0.05" departLane = "1" from="west_middle_road" to="middle_east_road"/>
    
    <!-- Lane 0 -->
    <flow id="f_8" type="bike" begin="0.00" end="3600.00" probability="0.05" departLane="0" from="west_middle_road" to="middle_south_road"/>
    <flow id="f_9" type="van" begin="0.00" end="3600.00" probability="0.05" departLane="0" from="west_middle_road" to="middle_south_road"/>
    <flow id="f_10" type="truck" begin="0.00" end="3600.00" probability="0.05" departLane="0" departSpeed="1.00" from="west_middle_road" to="middle_south_road"/>
    <flow id="f_11" begin="0.00" end="3600.00" probability="0.05" departLane = "0" from="west_middle_road" to="middle_south_road"/>
    

        <!-- Vehicles from north -->
    <!-- Lane 2 -->
    <flow id="f_12" type="bike" begin="0.00" end="3600.00" probability="0.005" departLane="2" from="north_middle_road" to="middle_east_road"/>
    <flow id="f_13" type="van" begin="0.00" end="3600.00" probability="0.005" departLane="2" from="north_middle_road" to="middle_east_road"/>
    <flow id="f_14" type="truck" begin="0.00" end="3600.00" probability="0.005" departLane="2" departSpeed="1.00" from="north_middle_road" to="middle_east_road"/>
    <flow id="f_15" begin="0.00" end="3600.00" probability="0.005" departLane = "2" from="north_middle_road" to="middle_east_road"/>
    
    <!-- Lane 1 -->
    <flow id="f_16" type="bike" begin="0.00" end="3600.00" probability="0.005" departLane="1" from="north_middle_road" to="middle_south_road"/>
    <flow id="f_17" type="van" begin="0.00" end="3600.00" probability="0.005" departLane="1" from="north_middle_road" to="middle_south_road"/>
    <flow id="f_18" type="truck" begin="0.00" end="3600.00" probability="0.005" departLane="1" departSpeed="1.00" from="north_middle_road" to="middle_south_road"/>
    <flow id="f_19" begin="0.00" end="3600.00" probability="0.005" departLane = "1" from="north_middle_road" to="middle_south_road"/>
    
    <!-- Lane 0 -->
    <flow id="f_20" type="bike" begin="0.00" end="3600.00" probability="0.005" departLane="0" from="north_middle_road" to="middle_west_road"/>
    <flow id="f_21" type="van" begin="0.00" end="3600.00" probability="0.005" departLane="0" from="north_middle_road" to="middle_west_road"/>
    <flow id="f_22" type="truck" begin="0.00" end="3600.00" probability="0.005" departLane="0" departSpeed="1.00" from="north_middle_road" to="middle_west_road"/>
    <flow id="f_23" begin="0.00" end="3600.00" probability="0.005" departLane = "0" from="north_middle_road" to="middle_west_road"/>
 
     <!-- Vehicles from east -->
    <!-- Lane 2 -->
    <flow id="f_24" type="bike" begin="0.00" end="3600.00" probability="0.05" departLane="2" from="east_middle_road" to="middle_south_road"/>
    <flow id="f_25" type="van" begin="0.00" end="3600.00" probability="0.05" departLane="2" from="east_middle_road" to="middle_south_road"/>
    <flow id="f_26" type="truck" begin="0.00" end="3600.00" probability="0.05" departLane="2" departSpeed="1.00" from="east_middle_road" to="middle_south_road"/>
    <flow id="f_27" begin="0.00" end="3600.00" probability="0.05" departLane = "2" from="east_middle_road" to="middle_south_road"/>
    
    <!-- Lane 1 -->
    <flow id="f_28" type="bike" begin="0.00" end="3600.00" probability="0.05" departLane="1" from="east_middle_road" to="middle_west_road"/>
    <flow id="f_29" type="van" begin="0.00" end="3600.00" probability="0.05" departLane="1" from="east_middle_road" to="middle_west_road"/>
    <flow id="f_30" type="truck" begin="0.00" end="3600.00" probability="0.05" departLane="1" departSpeed="1.00" from="east_middle_road" to="middle_west_road"/>
    <flow id="f_31" begin="0.00" end="3600.00" probability="0.05" departLane = "1" from="east_middle_road" to="middle_west_road"/>
    
    <!-- Lane 0 -->
    <flow id="f_32" type="bike" begin="0.00" end="3600.00" probability="0.05" departLane="0" from="east_middle_road" to="middle_north_road"/>
    <flow id="f_33" type="van" begin="0.00" end="3600.00" probability="0.05" departLane="0" from="east_middle_road" to="middle_north_road"/>
    <flow id="f_34" type="truck" begin="0.00" end="3600.00" probability="0.05" departLane="0" departSpeed="1.00" from="east_middle_road" to="middle_north_road"/>
    <flow id="f_35" begin="0.00" end="3600.00" probability="0.05" departLane = "0" from="east_middle_road" to="middle_north_road"/>
 
     <!-- Vehicles from south -->
    <!-- Lane 2 -->
    <flow id="f_36" type="bike" begin="0.00" end="3600.00" probability="0.005" departLane="2" from="south_middle_road" to="middle_west_road"/>
    <flow id="f_37" type="van" begin="0.00" end="3600.00" probability="0.005" departLane="2" from="south_middle_road" to="middle_west_road"/>
    <flow id="f_38" type="truck" begin="0.00" end="3600.00" probability="0.005" departLane="2" departSpeed="1.00" from="south_middle_road" to="middle_west_road"/>
    <flow id="f_39" begin="0.00" end="3600.00" probability="0.005" departLane = "2" from="south_middle_road" to="middle_west_road"/>
    
    <!-- Lane 1 -->
    <flow id="f_40" type="bike" begin="0.00" end="3600.00" probability="0.005" departLane="1" from="south_middle_road" to="middle_north_road"/>
    <flow id="f_41" type="van" begin="0.00" end="3600.00" probability="0.005" departLane="1" from="south_middle_road" to="middle_north_road"/>
    <flow id="f_42" type="truck" begin="0.00" end="3600.00" probability="0.005" departLane="1" departSpeed="1.00" from="south_middle_road" to="middle_north_road"/>
    <flow id="f_43" begin="0.00" end="3600.00" probability="0.005" departLane = "1" from="south_middle_road" to="middle_north_road"/>
    
    <!-- Lane 0 -->
    <flow id="f_44" type="bike" begin="0.00" end="3600.00" probability="0.005" departLane="0" from="south_middle_road" to="middle_east_road"/>
    <flow id="f_45" type="van" begin="0.00" end="3600.00" probability="0.005" departLane="0" from="south_middle_road" to="middle_east_road"/>
    <flow id="f_46" type="truck" begin="0.00" end="3600.00" probability="0.005" departLane="0" departSpeed="1.00" from="south_middle_road" to="middle_east_road"/>
    <flow id="f_47" begin="0.00" end="3600.00" probability="0.005" departLane = "0" from="south_middle_road" to="middle_east_road"/>
 
</routes>
