<?xml version="1.0" encoding="UTF-8"?>

<!-- generated on 2026-01-16T11:14:13.733324+05:45 by Eclipse SUMO netedit 1.25.0
-->

<routes xmlns:xsi="http://www.w3.org/2001/XMLSchema-instance" xsi:noNamespaceSchemaLocation="http://sumo.dlr.de/xsd/routes_file.xsd">
    <!-- VTypes -->
    <vType id="bike" vClass="motorcycle"/>
    <vType id="taxi" vClass="taxi"/>
    <vType id="truck" vClass="truck"/>
    <vType id="van" vClass="hov" guiShape="delivery"/>

    <!-- Vehicles, persons and containers (sorted by depart) -->
    <flow id="f_0" type="bike" begin="0.00" end="3600.00" perHour="200.00" departLane="2" from="west_middle_road" to="middle_north_road"/>
    <flow id="f_1" type="van" begin="0.00" end="3600.00" perHour="500.00" departLane="1" from="west_middle_road" to="middle_east_road"/>
    <flow id="f_10" type="truck" begin="0.00" end="3600.00" perHour="200.00" departLane="1" departSpeed="1.00" from="south_middle_road" to="middle_north_road"/>
    <flow id="f_11" type="bike" begin="0.00" end="3600.00" perHour="200.00" departLane="2" departSpeed="1.00" from="south_middle_road" to="middle_west_road"/>
    <flow id="f_2" type="taxi" begin="0.00" end="3600.00" perHour="200.00" from="south_middle_road" to="middle_east_road"/>
    <flow id="f_3" begin="0.00" end="3600.00" perHour="400.00" departLane="0" from="west_middle_road" to="middle_south_road"/>
    <flow id="f_4" type="bike" begin="0.00" end="3600.00" perHour="1000.00" departLane="0" from="north_middle_road" to="middle_west_road"/>
    <flow id="f_5" type="van" begin="0.00" end="3600.00" perHour="80.00" departLane="1" from="north_middle_road" to="middle_south_road"/>
    <flow id="f_6" type="truck" begin="0.00" end="3600.00" probability="0.5" departLane="2" from="north_middle_road" to="middle_east_road"/>
    <flow id="f_7" type="truck" begin="0.00" end="3600.00" perHour="500.00" departLane="1" from="east_middle_road" to="middle_west_road"/>
    <flow id="f_8" type="taxi" begin="0.00" end="3600.00" perHour="100.00" departLane="0" from="east_middle_road" to="middle_north_road"/>
    <flow id="f_9" type="bike" begin="0.00" end="3600.00" perHour="100.00" departLane="2" from="east_middle_road" to="middle_south_road"/>
</routes>
