<additional>
    <tlLogic id = "middle_junction" type = "static" programID = "myProgram" offset = "0">

        <!-- Opens east paths -->
        <phase duration = "30" state = "GGGGGGGrrrGGrrrGGrrr" />
        <phase duration = "3"  state = "GGyyyGGrrrGGrrrGGrrr"/>
        <phase duration = "2"  state = "GGrrrGGrrrGGrrrGGrrr"/>
        

        <!-- Opens south pahts -->
        <phase duration = "30" state = "GGrrrGGGGGGGrrrGGrrr" />
        <phase duration = "3"  state = "GGrrrGGyyyGGrrrGGrrr"/>
        <phase duration = "2"  state = "GGrrrGGrrrGGrrrGGrrr"/>

        <!-- Opens west paths -->
        <phase duration = "30" state = "GGrrrGGrrrGGGGGGGrrr" />
        <phase duration = "3"  state = "GGrrrGGrrrGGyyyGGrrr"/>
        <phase duration = "2"  state = "GGrrrGGrrrGGrrrGGrrr"/>
        
        <!-- Opens north paths -->
        <phase duration = "30" state = "GGrrrGGrrrGGrrrGGGGG" />
        <phase duration = "3"  state = "GGrrrGGrrrGGrrrGGyyy"/>
        <phase duration = "2"  state = "GGrrrGGrrrGGrrrGGrrr"/>
    </tlLogic>

</additional>