<additional>
    <tlLogic id = "middle_junction" type = "static" programID = "myProgram" offset = "0">

        <!-- Opens the horizontal paths -->
        <phase duration = "30" state = "GGGrrGGrrrGGGrrGGrrr" />
        <phase duration = "3"  state = "GGyrrGGrrrGGyrrGGrrr"/>

        <!-- Opens the Vertical paths -->
        <phase duration = "30" state = "GGrrrGGGrrGGrrrGGGrr" />
        <phase duration = "3"  state = "GGrrrGGyrrGGrrrGGyrr"/>

        <!-- Opens the horizontal cross opposite paths -->
        <phase duration = "15" state = "GGrrGGGrrrGGrrGGGrrr" />
        <phase duration = "3"  state = "GGrryGGrrrGGrrGGyrrr"/>

        <!-- Opens the vertical cross opposite paths -->s
        <phase duration = "15" state = "GGrrrGGrrGGGrrrGGrrG" />
        <phase duration = "3"  state = "GGrryGGrrrGGrryGGrrr"/>

    </tlLogic>

</additional>